/*--------------------------------*- C++ -*----------------------------------*\
  =========                 |
  \\      /  F ield         | OpenFOAM: The Open Source CFD Toolbox
   \\    /   O peration     | Website:  https://openfoam.org
    \\  /    A nd           | Version:  6
     \\/     M anipulation  |
\*---------------------------------------------------------------------------*/
FoamFile
{
    version         2;
    format          ascii;
    class           dictionary;
    location        "system";
    object          controlDict;
}

application     superDeliciousVanilla;

libs            ( "libSOWFAboundaryConditions.so" "libSOWFAincompressibleTurbulenceModels.so" );

startFrom       startTime;

startTime       133200;

stopAt          endTime;

endTime         147600;

deltaT          0.2;

writeControl    adjustableRunTime;

writeInterval   3600;

purgeWrite      0;

writeFormat     binary;

writePrecision  12;

writeCompression uncompressed;

timeFormat      general;

timePrecision   12;

runTimeModifiable yes;

adjustTimeStep  no;

maxCo           0.75;

maxDeltaT       25;

functions
{
#include "sampling/planarAveraging"
#include "sampling/boundaryData"
#include "sampling/temporalAverages"
#include "sampling/slicesWRF"
#include "sampling/slicesFINO1_correlation"
#include "sampling/vmasts_1kmGrid"
#include "sampling/vmasts_small3x3Grid"
#include "sampling/probeSurface"
}


// ************************************************************************* //
