/*--------------------------------*- C++ -*----------------------------------*\
  =========                 |
  \\      /  F ield         | OpenFOAM: The Open Source CFD Toolbox
   \\    /   O peration     | Website:  https://openfoam.org
    \\  /    A nd           | Version:  6
     \\/     M anipulation  |
\*---------------------------------------------------------------------------*/

FoamFile
{
    version     2.0;
    format      ascii;
    class       dictionary;
    object      changeDictionaryDict;
}

// * * * * * * * * * * * * * * * * * * * * * * * * * * * * * * * * * * * * * //

#include "../setUp";


dictionaryReplacement
{

    // Specify
    // - all fvPatchFields with potential non-uniform values
    // - all fvPatchFields originating from meshing
    // - all fvPatchFields originating from mesh-redistribution

    qwall
    {
        boundaryField
        {
            lower
            {
                type            specifiedSurfaceTemperature;
                TSurface        table
                (
                    #include "../constant/drivingData/surfaceSkinPotentialTemperatureTable"
                );
                kappa           $kappa;
                z0              uniform $z0;
                betaM           $betaM;
                gammaM          $gammaM;
                betaH           $betaH;
                gammaH          $gammaH;
                alphaH          $alphaH;
                averageType     "planarAverage";
              //value           uniform $qwall;
            }
        }
    }
}
// ************************************************************************* //
