/*--------------------------------*- C++ -*----------------------------------*\
| =========                 |                                                 |
| \\      /  F ield         | OpenFOAM: The Open Source CFD Toolbox           |
|  \\    /   O peration     | Version:  1.6                                   |
|   \\  /    A nd           | Web:      www.OpenFOAM.org                      |
|    \\/     M anipulation  |                                                 |
\*---------------------------------------------------------------------------*/
FoamFile
{
    version     2.0;
    format      ascii;
    class       dictionary;
    location    "system";
    object      controlDict;
}
// * * * * * * * * * * * * * * * * * * * * * * * * * * * * * * * * * * * * * //

  application       superDeliciousVanilla;

  libs              ("libSOWFAboundaryConditions.so" "libSOWFAincompressibleTurbulenceModels.so");

  startFrom         startTime;

  startTime         50400.0;

  stopAt            endTime;

  endTime           129600.0;

  deltaT            0.5;

  writeControl      adjustableRunTime;

  writeInterval     3600.0; 

  purgeWrite        0;

  writeFormat       binary;

  writePrecision    12;

  writeCompression  uncompressed;

  timeFormat        general;

  timePrecision     12;

  runTimeModifiable yes;

  adjustTimeStep    no;

  maxCo             0.75;

  maxDeltaT         25.0;

  functions
  {
    #include "sampling/planarAverages"
    #include "sampling/sliceDataInstantaneous"
    #include "sampling/arrayStructured.1"
    #include "sampling/probeData1"
    #include "sampling/probeData2"
    #include "sampling/probeData3"
    #include "sampling/probeData4"
    #include "sampling/probeData5"
    #include "sampling/probeData6"
    #include "sampling/probeData7"
    #include "sampling/probeData8"
    #include "sampling/probeData9"
    #include "sampling/probeData1S"
    #include "sampling/probeData2S"
    #include "sampling/probeData3S"
    #include "sampling/probeData4S"
    #include "sampling/probeData5S"
    #include "sampling/probeData6S"
    #include "sampling/probeData7S"
    #include "sampling/probeData8S"
    #include "sampling/probeData9S"
  }

// ************************************************************************* //

