/*---------------------------------------------------------------------------*\
| =========                 |                                                 |
| \\      /  F ield         | OpenFOAM: The Open Source CFD Toolbox           |
|  \\    /   O peration     | Version:  1.6                                   |
|   \\  /    A nd           | Web:      http://www.openfoam.org               |
|    \\/     M anipulation  |                                                 |
\*---------------------------------------------------------------------------*/

FoamFile
{
    version         2.0;
    format          ascii;

    root            "";
    case            "";
    instance        "";
    local           "";

    class           dictionary;
    object          ABLProperties;
}

// * * * * * * * * * * * * * * * * * * * * * * * * * * * * * * * * * * * * * //

#include        "../setUp"


// Properties of the mesoscale source terms
momentumSource
{
    type        "given";
    #include "../forcingTable"
}

temperatureSource
{
    type        "given";
    #include "../forcingTable"
}


// Properties of the Coriolis force
planetaryRotationPeriod   $EarthPeriod;
latitude                  $latitude;


// Statistics gathering input
statisticsOn              $statisticsOn;
statisticsFrequency       $statisticsFrequency;

// ************************************************************************* //
